-------------------------------------------------------
          Amber 12 SANDER                              2012
          -------------------------------------------------------

  [-O]verwriting output

File Assignments:

 Here is the input file:

test md with igb1
&cntrl
   imin = 0, nstlim = 20000, dt = 0.001, nrespa = 1,
   ntx=1, irest = 0, ig = -1,
   ntwx = 1000, ioutfm = 1, ntpr = 1000, ntwr = 50000,
   ntt = 3, gamma_ln = 5, temp0 = 300.0, tempi = 300.0,
   ntc = 2, ntf = 2, ntb = 0, cut = 9999.0,
   igb = 1, saltcon = 0.0, gbsa = 0,
&end

Note: ig = -1. Setting random seed based on wallclock time in microseconds.

--------------------------------------------------------------------------------
   1.  RESOURCE   USE:
--------------------------------------------------------------------------------

 NATOM  =      22 NTYPES =       7 NBONH =      12 MBONA  =       9
 NTHETH =      25 MTHETA =      11 NPHIH =      42 MPHIA  =      24
 NHPARM =       0 NPARM  =       0 NNB   =      99 NRES   =       3
 NBONA  =       9 NTHETA =      11 NPHIA =      24 NUMBND =       8
 NUMANG =      16 NPTRA  =      19 NATYP =       7 NPHB   =       0
 IFBOX  =       0 NMXRS  =      10 IFCAP =       0 NEXTRA =       0
 NCOPY  =       0

 Implicit solvent radii are modified Bondi radii (mbondi)
--------------------------------------------------------------------------------
   2.  CONTROL  DATA  FOR  THE  RUN
--------------------------------------------------------------------------------

ACE

General flags:
     imin    =       0, nmropt  =       0

Nature and format of input:
     ntx     =       1, irest   =       0, ntrx    =       1

Nature and format of output:
     ntxo    =       1, ntpr    =    1000, ntrx    =       1, ntwr    =   50000
     iwrap   =       0, ntwx    =    1000, ntwv    =       0, ntwe    =       0
     ioutfm  =       1, ntwprt  =       0, idecomp =       0, rbornstat=      0

Potential function:
     ntf     =       2, ntb     =       0, igb     =       1, nsnb    =      25
     ipol    =       0, gbsa    =       0, iesp    =       0
     dielc   =   1.00000, cut     =9999.00000, intdiel =   1.00000
     saltcon =   0.00000, offset  =   0.09000, gbalpha=    1.00000
     gbbeta  =   0.00000, gbgamma =   0.00000, surften =   0.00500
     rdt     =   0.00000, rgbmax  =  25.00000  extdiel =  78.50000
     alpb  =        0

Frozen or restrained atoms:
     ibelly  =       0, ntr     =       0

Molecular dynamics:
     nstlim  =     20000, nscm    =      1000, nrespa  =         1
     t       =   0.00000, dt      =   0.00100, vlimit  =  -1.00000

Langevin dynamics temperature regulation:
     ig      =  517660
     temp0   = 300.00000, tempi   = 300.00000, gamma_ln=   5.00000

SHAKE:
     ntc     =       2, jfastw  =       0
     tol     =   0.00001

--------------------------------------------------------------------------------
   3.  ATOMIC COORDINATES AND VELOCITIES
--------------------------------------------------------------------------------

ACE
 begin time read from input coords =     0.000 ps

 Number of triangulated 3-point waters found:        0

--------------------------------------------------------------------------------
   4.  RESULTS
 NSTEP =        0   TIME(PS) =       0.000  TEMP(K) =   472.66  PRESS =     0.0
 Etot   =        -9.9232  EKtot   =        25.3600  EPtot      =       -35.2832
 BOND   =         0.5736  ANGLE   =         1.0489  DIHED      =         8.5799
 1-4 NB =         2.7878  1-4 EEL =        45.9313  VDWAALS    =        -1.1981
 EELEC  =       -77.7858  EGB     =       -15.2207  RESTRAINT  =         0.0000
 ------------------------------------------------------------------------------

      A V E R A G E S   O V E R      20 S T E P S

 NSTEP =    20000   TIME(PS) =      20.000  TEMP(K) =   287.66  PRESS =     0.0
 Etot   =        -6.9751  EKtot   =        15.4342  EPtot      =       -22.4093
 BOND   =         3.2051  ANGLE   =         8.4792  DIHED      =        11.6102
 1-4 NB =         3.0971  1-4 EEL =        46.5776  VDWAALS    =        -1.3838
 EELEC  =       -77.4041  EGB     =       -16.5907  RESTRAINT  =         0.0000
 ------------------------------------------------------------------------------

      R M S  F L U C T U A T I O N S

 NSTEP =    20000   TIME(PS) =      20.000  TEMP(K) =    52.60  PRESS =     0.0
 Etot   =         3.4385  EKtot   =         2.8224  EPtot      =         2.4830
 BOND   =         1.4376  ANGLE   =         1.6331  DIHED      =         1.3329
 1-4 NB =         0.6705  1-4 EEL =         1.9051  VDWAALS    =         0.2871
 EELEC  =         2.1413  EGB     =         1.2075  RESTRAINT  =         0.0000
 ------------------------------------------------------------------------------
